43

 H     0.322108    -0.710868    -2.625864 -114
 O    -0.631653    -0.804541    -2.886899 -113
 H    -6.513105     1.203034     3.958596 -118
 O    -5.114372     0.215484     2.244879 -113
 C    -1.394351     0.241707    -2.137810 -117
 C    -1.396340    -0.050281    -0.606220 -125
 O    -2.226419     0.960892     0.099165 -41 
 C    -3.659986     0.965845    -0.386315 -135
 C    -3.733501     1.190998    -1.919354 -117
 C    -2.844622     0.175202    -2.661522 -117
 C     0.000000     0.000000     0.000000 -213
 O     1.072303     0.000000    -0.657820 -214
 O    -4.213978     2.102085     0.326023 -41 
 C    -5.587470     1.904284     0.922358 -125
 C    -6.250293     3.299460     0.939603 -125
 O    -7.536581     3.155771     1.728439 -41 
 C    -7.217261     2.860387     3.132242 -137
 C    -6.660051     1.417052     3.203689 -117
 C    -5.395457     1.280274     2.337141 -117
 O    -3.340424     2.209635    -2.103768 -113
 O    -2.864650     0.392802    -3.742536 -113
 C    -6.618502     3.868422    -0.483666 -213
 O    -6.672744     3.001961    -1.471824 -214
 O    -7.453649     0.740041     2.859205 -113
 O     0.000000     0.000000     1.389723 -214
 O    -6.832401     5.129785    -0.537704 -214
 H    -4.464898     2.600787    -2.187531 -114
 H    -2.819815    -0.511263    -4.211808 -114
 H    -7.444791     0.176996     3.460493 -114
 H    -3.901176     0.475386     2.337584 -114
 H    -6.183769     1.247432     0.274820 -127
 H    -4.634129     1.770239     2.866760 -118
 H    -5.603009     4.025485     1.459237 -127
 H    -0.956422     1.238013    -2.314184 -118
 H    -3.265269    -0.929190    -2.469925 -118
 H    -4.152146     0.016906    -0.115704 -136
 H    -1.815312    -1.065237    -0.459939 -127
 H    -4.729674     1.087011    -2.263978 -118
 H    -6.481024     3.588867     3.512756 -136
NA    -8.045550     6.376891    -3.429896 -349
NA     2.946352     1.020825     2.703381 -349
 O    -8.475102     2.967197     3.881590 -113
 H    -8.386985     2.340551     4.649772 -114
